*KEYWORD
*MAT_156
$#     mid        ro       sno       srm       pis       ssm       cer       dmp
         1       1.0      &sno      &srm &fceOptAT       1.0       0.0       0.0
$#     alm       sfr       svs       svr       ssp
  -2899501       1.0       -10       -12       -11              
