*KEYWORD
*MAT_156
$#     mid        ro       sno       srm       pis       ssm       cer       dmp
         1       1.0      &sno      &srm &fceOptAT       1.0       0.0       0.0
$#     alm       sfr       svs       svr       ssp
  -2899501       1.0       -10       -12       -11              
$
*DEFINE_CURVE
$#    lcid      sidr       sfa       sfo      offa      offo    dattyp
        10         0       1.0       1.0       0.0       0.0
$#                a1                  o1
   0.183505154639175   0.000122028783425
   0.201319587628866   0.000122030958038
   0.219134020618557   0.000122033132651
   0.236948453608247   0.000122035307265
   0.254762886597938   0.000122037481878
   0.272577319587629   0.000122039656492
   0.290391752577320   0.000122041831105
   0.308206185567010   0.000122044005718
   0.326020618556701   0.000122046180332
   0.343835051546392   0.000130991139702
   0.361649484536082   0.000181854224502
   0.379463917525773   0.000287178519851
   0.397278350515464   0.000462327940260
   0.415092783505155   0.000731623245707
   0.432907216494845   0.001137984957954
   0.450721649484536   0.001772319949432
   0.468536082474227   0.002921158237978
   0.486350515463917   0.011350209466081
   0.504164948453608   0.036598155319572
   0.521979381443299   0.075330838731177
$ ... 81 like lines cut
$
*DEFINE_CURVE
$#    lcid      sidr       sfa       sfo      offa      offo    dattyp
        11         0       1.0       1.0       0.0       0.0
$#                a1                  o1
   0.620616320376757   0.000121495705752
   0.626956946498881   0.000121519802246
   0.633296369202232   0.000121543351917
   0.639634617025610   0.000121566371754
   0.645971717607458   0.000121588878091
   0.652307697721288   0.000121610886637
   0.658642583309430   0.000121632412501
   0.664976399515204   0.000121653470226
   0.671309170713614   0.000121674073806
   0.677640920540615   0.000135966163197
   0.683971671921056   0.000211902528842
   0.690301447095356   0.000355217481786
   0.696630267644982   0.000568239634889
   0.702958154516790   0.000853431532257
   0.709285128046295   0.001213400905376
   0.715611207979912   0.001650913161491
   0.721936413496238   0.002168905274178
   0.728260763226408   0.002770501274463
   0.734584275273577   0.003459029574778
   0.740906967231575   0.004238042398911
$ ... 81 like lines cut
$
*DEFINE_CURVE
$#    lcid      sidr       sfa       sfo      offa      offo    dattyp
        12         0       1.0       1.0       0.0       0.0
$#                a1                  o1
  -1.110000000000000   0.000122056884766
  -1.096800000000000   0.000122058496094
  -1.083600000000000   0.000122060107422
  -1.070400000000000   0.000122061718750
  -1.057200000000000   0.000122063330078
  -1.044000000000000   0.000122064941406
  -1.030800000000000   0.000122066552734
  -1.017600000000000   0.000122068164063
  -1.004400000000000   0.000122069775391
  -0.991200000000000   0.000339669226664
  -0.978000000000000   0.001201073085136
  -0.964800000000000   0.002437577926703
  -0.951600000000000   0.003914349742284
  -0.938400000000000   0.005562017603801
  -0.925200000000000   0.007339294487011
  -0.912000000000000   0.009219245835846
  -0.898800000000000   0.011183189807857
  -0.885600000000000   0.013216447261137
  -0.872400000000000   0.015293460672677
  -0.859200000000000   0.017398407462537
$ ... 82 like lines cut
$         
$--------------------------------------------------------------------------------
$ Activation dynamics code (below) comes from the OpenHBM model and specifically
$ the code of Putra et al. that is released as part of the OpenHBM project under
$ the lgpl3 license.
$  
$ Putra, I P A, Iraeus J, Thomson R, Svensson M Y, Linder A, Sato F. 2019.
$ Comparison of control strategies for the cervical muscles of an average female 
$ head-neck finite element model. Traffic Injury Prevention
$ https://doi.org/10.1080/15389588.2019.1670818
$
$--------------------------------------------------------------------------------
*DEFINE_FUNCTION_TABULATED
28000015
stimFcn
$#                a1                  o1
                 0.0                 0.0
             &timeS0                 0.0
             &timeS1             &actVal
              &timeE             &actVal
$--------------------------------------------------------------------------------
$ 6.2.1.1 activation dynamics filter
$--------------------------------------------------------------------------------
$
*DEFINE_FUNCTION
28990210,1ode Ne/Na filter
float ode28990210(float u,float tne,float tna1,float tna2, float tt)
{
float na,ne,t,tts,dt;
dt=tt-tts;
tts=tt;
ne=ne+dt*(u-ne)/tne;
t=tna1;
if(ne<na) t=tna2;
na=na+dt*(ne-na)/t;
return na;
}
$--------------------------------------------------------------------------------
$ Filtered signal (from the viva 50f model)
$--------------------------------------------------------------------------------
$
*DEFINE_CURVE_FUNCTION
28990310
ode28990210(stimFcn(TIME),0.035,0.010,0.040,TIME)
$--------------------------------------------------------------------------------
$ 6.2.1.3 activation signal going to muscle activation
$--------------------------------------------------------------------------------
$
*DEFINE_CURVE_FUNCTION
2899501
MIN(MAX(LC28990310,0.0),1.0)   
*END
