*KEYWORD
*MAT_156
$#     mid        ro       sno       srm       pis       ssm       cer       dmp
         1       1.0      &sno   &vceMax &fceOptAT    1.3865       0.0       0.0
$#     alm       sfr       svs       svr       ssp
         3       1.0       1.0       1.0       1.0
*END
