*KEYWORD
*MAT_USER_DEFINED_MATERIAL_MODELS
$#     mid        ro       sno       srm       pis       ssm       cer       dmp
         11.00000E-6   &sno156   &vceMax &fceOptAT    1.3865       0.0       0.0
$#     alm       sfr       svs       svr       ssp
         3       1.0       1.0       1.0       1.0
*END
