*KEYWORD
*MAT_156
$#     mid        ro       sno       srm       pis       ssm       cer       dmp
         1       1.0      &sno   &vceMax &fceOptAT 1.4380893       0.0       0.0
$#     alm       sfr       svs       svr       ssp
        -3       1.0       -10       -12       -11
$
*DEFINE_CURVE
$#    lcid      sidr       sfa       sfo      offa      offo    dattyp
        10         0       1.0       1.0       0.0       0.0
$#                a1                  o1
   0.183505154639175   0.000122028783425
   0.201319587628866   0.000122030958038
   0.219134020618557   0.000122033132651
   0.236948453608247   0.000122035307265
   0.254762886597938   0.000122037481878
   0.272577319587629   0.000122039656492
   0.290391752577320   0.000122041831105
   0.308206185567010   0.000122044005718
   0.326020618556701   0.000122046180332
   0.343835051546392   0.000130991139702
   0.361649484536082   0.000181854224502
   0.379463917525773   0.000287178519851
   0.397278350515464   0.000462327940260
   0.415092783505155   0.000731623245707
   0.432907216494845   0.001137984957954
   0.450721649484536   0.001772319949432
   0.468536082474227   0.002921158237978
   0.486350515463917   0.011350209466081
   0.504164948453608   0.036598155319572
   0.521979381443299   0.075330838731177
$ ... 81 like lines cut
$
*DEFINE_CURVE
$#    lcid      sidr       sfa       sfo      offa      offo    dattyp
        11         0       1.0       1.0       0.0       0.0
$#                a1                  o1
   0.786602607651628   0.000440759921461
   0.792820580482763   0.000440761291812
   0.799038553313898   0.000440762662162
   0.805256526145033   0.000440764032513
   0.811474498976167   0.000440765402863
   0.817692471807302   0.000440766773214
   0.823910444638437   0.000440768143565
   0.830128417469571   0.000440769513915
   0.836346390300706   0.000440770884266
   0.842564363131841   0.000448784691422
   0.848782335962976   0.000529328494180
   0.855000308794110   0.000757027221208
   0.861218281625245   0.001099509459639
   0.867436254456380   0.001556557082594
   0.873654227287514   0.002130420927735
   0.879872200118649   0.002823824360249
   0.886090172949784   0.003639715670874
   0.892308145780919   0.004581219850407
   0.898526118612053   0.005651632114852
   0.904744091443188   0.006854424047757
$ ... 81 like lines cut
$
*DEFINE_CURVE
$#    lcid      sidr       sfa       sfo      offa      offo    dattyp
        12         0       1.0       1.0       0.0       0.0
$#                a1                  o1
  -1.110000000000000   0.000122056884766
  -1.096800000000000   0.000122058496094
  -1.083600000000000   0.000122060107422
  -1.070400000000000   0.000122061718750
  -1.057200000000000   0.000122063330078
  -1.044000000000000   0.000122064941406
  -1.030800000000000   0.000122066552734
  -1.017600000000000   0.000122068164063
  -1.004400000000000   0.000122069775391
  -0.991200000000000   0.000339669226664
  -0.978000000000000   0.001201073085136
  -0.964800000000000   0.002437577926703
  -0.951600000000000   0.003914349742284
  -0.938400000000000   0.005562017603801
  -0.925200000000000   0.007339294487011
  -0.912000000000000   0.009219245835846
  -0.898800000000000   0.011183189807857
  -0.885600000000000   0.013216447261137
  -0.872400000000000   0.015293460672677
  -0.859200000000000   0.017398407462537
$ ... 82 like lines cut
*END
